Version 4
SHEET 1 880 680
WIRE 32 48 -128 48
WIRE -128 112 -128 48
WIRE -128 160 -128 112
WIRE 32 160 32 48
WIRE -336 208 -400 208
WIRE -224 208 -256 208
WIRE -192 208 -224 208
WIRE -400 336 -400 208
WIRE -128 336 -128 256
WIRE -128 336 -400 336
WIRE 32 336 32 240
WIRE 32 336 -128 336
WIRE -128 368 -128 336
FLAG -128 368 0
FLAG -128 112 c
FLAG -224 208 b
SYMBOL voltage 32 144 R0
WINDOW 123 0 0 Left 0
WINDOW 39 0 0 Left 0
SYMATTR InstName V1
SYMATTR Value 3
SYMBOL current -336 208 R270
WINDOW 0 32 40 VTop 2
WINDOW 3 -32 40 VBottom 2
WINDOW 123 0 0 Left 0
WINDOW 39 0 0 Left 0
SYMATTR InstName I1
SYMATTR Value 3µ
SYMBOL npn -192 160 R0
SYMATTR InstName Q1
SYMATTR Value 2N3904
TEXT -344 440 Left 2 !.dc v1 0 3 0.01 i1 2u 5u 0.1u
TEXT -728 -80 Left 2 !;.step temp -20 85 1\n;.temp 23
TEXT -728 16 Left 2 !.op
TEXT -800 88 Left 2 !;.dc v1 0 3 0.01 i1 2u 5u 0.1u
