Version 4
SHEET 1 880 680
WIRE 160 48 -32 48
WIRE 336 48 160 48
WIRE 160 112 160 48
WIRE 336 112 336 48
WIRE -32 208 -32 48
WIRE 336 240 336 192
WIRE 336 272 336 240
WIRE 160 320 160 192
WIRE 224 320 160 320
WIRE 272 320 224 320
WIRE 336 416 336 368
WIRE 336 448 336 416
WIRE -32 560 -32 288
WIRE 336 560 336 528
WIRE 336 560 -32 560
WIRE 336 608 336 560
FLAG 336 416 e
FLAG 336 240 c
FLAG 336 608 0
FLAG 224 320 b
SYMBOL voltage -32 192 R0
WINDOW 123 0 0 Left 0
WINDOW 39 0 0 Left 0
SYMATTR InstName V1
SYMATTR Value 3
SYMBOL res 320 96 R0
SYMATTR InstName RC
SYMATTR Value 1.5k
SYMBOL npn 272 272 R0
SYMATTR InstName Q1
SYMATTR Value 2N3904
SYMBOL res 320 432 R0
SYMATTR InstName RE
SYMATTR Value 470
SYMBOL res 144 96 R0
SYMATTR InstName RB
SYMATTR Value 5.63e5
TEXT -66 632 Left 2 !.op
