Version 4
SHEET 1 880 816
WIRE 304 96 272 96
WIRE 304 144 304 96
WIRE 304 144 128 144
WIRE 480 144 304 144
WIRE 304 208 304 144
WIRE 480 208 480 144
WIRE 128 304 128 144
WIRE 480 336 480 288
WIRE 480 368 480 336
WIRE 304 416 304 288
WIRE 368 416 304 416
WIRE 416 416 368 416
WIRE 304 480 304 416
WIRE 480 496 480 464
WIRE 576 496 480 496
WIRE 480 528 480 496
WIRE 576 528 576 496
WIRE 128 656 128 384
WIRE 304 656 304 560
WIRE 304 656 128 656
WIRE 480 656 480 608
WIRE 480 656 304 656
WIRE 576 656 576 592
WIRE 576 656 480 656
WIRE 304 704 304 656
FLAG 480 336 c
FLAG 304 704 0
FLAG 368 416 b
FLAG 272 96 VCC
FLAG 480 496 e
SYMBOL voltage 128 288 R0
WINDOW 123 0 0 Left 0
WINDOW 39 0 0 Left 0
SYMATTR InstName V1
SYMATTR Value 3
SYMBOL res 464 192 R0
SYMATTR InstName RC
SYMATTR Value 1.5k
SYMBOL npn 416 368 R0
SYMATTR InstName Q1
SYMATTR Value 2N3904
SYMBOL res 288 192 R0
SYMATTR InstName RB1
SYMATTR Value 9.1k
SYMBOL res 464 512 R0
SYMATTR InstName RE
SYMATTR Value 240
SYMBOL cap 560 528 R0
SYMATTR InstName CE
SYMATTR Value 10p
SYMBOL res 288 464 R0
SYMATTR InstName RB2
SYMATTR Value 3.9k
TEXT 104 800 Left 2 !.tran 10m
