Version 4
SHEET 1 880 680
WIRE 384 96 352 96
WIRE 384 144 384 96
WIRE 384 144 224 144
WIRE 560 144 384 144
WIRE 384 208 384 144
WIRE 560 208 560 144
WIRE 224 304 224 144
WIRE 560 336 560 288
WIRE 560 368 560 336
WIRE 384 416 384 288
WIRE 448 416 384 416
WIRE 496 416 448 416
WIRE 224 512 224 384
WIRE 384 512 224 512
WIRE 560 512 560 464
WIRE 560 512 384 512
WIRE 384 560 384 512
FLAG 560 336 c
FLAG 384 560 0
FLAG 448 416 b
FLAG 352 96 VCC
SYMBOL voltage 224 288 R0
WINDOW 123 0 0 Left 0
WINDOW 39 0 0 Left 0
SYMATTR InstName V1
SYMATTR Value 3
SYMBOL res 544 192 R0
SYMATTR InstName RC
SYMBOL npn 496 368 R0
SYMATTR InstName Q1
SYMATTR Value 2N3904
SYMBOL res 368 192 R0
SYMATTR InstName RB
