Version 4
SHEET 1 1256 680
WIRE 144 -192 0 -192
WIRE 448 -192 144 -192
WIRE 528 -192 448 -192
WIRE 1184 -192 624 -192
WIRE 448 -160 448 -192
WIRE 144 -144 144 -192
WIRE 448 -48 448 -80
WIRE 544 -48 544 -144
WIRE 544 -48 448 -48
WIRE 672 -48 544 -48
WIRE 672 -32 672 -48
WIRE 544 64 544 -48
WIRE 672 112 672 48
WIRE 672 112 608 112
WIRE 784 112 672 112
WIRE 848 112 784 112
WIRE 144 128 144 -64
WIRE 272 128 144 128
WIRE 304 128 272 128
WIRE 0 224 0 -192
WIRE 1184 224 1184 -192
WIRE 544 272 544 160
WIRE 304 288 304 128
WIRE 928 336 368 336
WIRE 976 336 928 336
WIRE 1024 336 976 336
WIRE 1184 336 1184 288
WIRE 1184 336 1104 336
WIRE 976 384 976 336
WIRE 1184 400 1184 336
WIRE 0 528 0 304
WIRE 304 528 304 384
WIRE 304 528 0 528
WIRE 976 528 976 448
WIRE 976 528 304 528
WIRE 1184 528 1184 480
WIRE 1184 528 976 528
WIRE 0 592 0 528
FLAG 272 128 EN
FLAG 1184 -192 out
FLAG 0 592 0
FLAG 928 336 vb
FLAG 544 272 0
FLAG 784 112 EN
SYMBOL voltage 0 208 R0
WINDOW 3 -101 -64 VRight 2
WINDOW 123 0 0 Left 0
WINDOW 39 -52 96 VRight 2
SYMATTR InstName V1
SYMATTR Value PWL(0 0 5m 0 {ramp} 18 1 18)
SYMATTR SpiceLine Rser=10m
SYMBOL cap 1168 224 R0
SYMATTR InstName C1
SYMATTR Value 100n
SYMBOL res 1168 384 R0
SYMATTR InstName R1
SYMATTR Value 10k
SYMBOL res 1120 320 R90
WINDOW 0 0 56 VBottom 2
WINDOW 3 32 56 VTop 2
SYMATTR InstName R2
SYMATTR Value 100
SYMBOL cap 960 384 R0
SYMATTR InstName C2
SYMATTR Value 10n
SYMBOL npn 368 288 M0
SYMATTR InstName Q1
SYMATTR Value 2N4124
SYMBOL res 128 -160 R0
SYMATTR InstName R3
SYMATTR Value 47k
SYMBOL nmos 624 -144 M270
SYMATTR InstName M1
SYMATTR Value BSC014N03LS
SYMBOL res 432 -176 R0
SYMATTR InstName R4
SYMATTR Value 10k
SYMBOL npn 608 64 M0
SYMATTR InstName Q2
SYMATTR Value 2N2222
SYMBOL res 656 -48 R0
SYMATTR InstName R5
SYMATTR Value 10k
TEXT -116 616 Left 2 !.tran 40m
TEXT -104 -160 Left 2 !.step param ramp 10m 40m 2m
