Version 4
SHEET 1 880 744
WIRE -208 64 -336 64
WIRE -128 64 -208 64
WIRE 16 64 -128 64
WIRE -128 128 -128 64
WIRE 16 128 16 64
WIRE -336 144 -336 64
WIRE -128 240 -128 208
WIRE 16 240 16 192
WIRE 16 240 -128 240
WIRE -128 272 -128 240
WIRE -128 304 -128 272
WIRE -128 400 -128 368
WIRE -128 416 -128 400
WIRE -336 512 -336 224
WIRE -128 512 -128 496
WIRE -128 512 -336 512
WIRE -336 560 -336 512
FLAG -336 560 0
FLAG -208 64 in
FLAG -128 272 out
FLAG -128 400 in2
SYMBOL AutoGenerated\\DI_BZX84C3V3 16 160 R270
SYMATTR InstName U1
SYMBOL res -144 112 R0
SYMATTR InstName R1
SYMATTR Value 10k
SYMBOL cap -144 304 R0
SYMATTR InstName C1
SYMATTR Value 100n
SYMBOL voltage -336 128 R0
WINDOW 3 -81 -74 VRight 2
WINDOW 123 0 0 Left 0
WINDOW 39 0 0 Left 0
SYMATTR InstName V1
SYMATTR Value PULSE(0 3.3 0 1m 1m 1 2)
SYMBOL voltage -128 400 R0
WINDOW 3 116 12 VRight 2
WINDOW 123 0 0 Left 0
WINDOW 39 0 0 Left 0
SYMATTR InstName V2
SYMATTR Value PULSE(0 3.3 0 0 1m 4m 2)
TEXT -432 728 Left 2 !.tran 10m
