Version 4
SHEET 1 880 680
WIRE 48 144 -16 144
WIRE 96 144 48 144
WIRE 128 144 96 144
WIRE 368 144 256 144
WIRE 96 176 96 144
WIRE 128 176 96 176
WIRE -16 192 -16 144
WIRE 368 208 368 144
WIRE -16 320 -16 272
WIRE 368 320 368 288
FLAG -16 320 0
FLAG 368 320 0
FLAG 368 144 out
FLAG 48 144 in
SYMBOL voltage -16 176 R0
WINDOW 123 0 0 Left 0
WINDOW 39 0 0 Left 0
SYMATTR InstName V1
SYMATTR Value PULSE(0 3.7 0 300u 300u 1m 1)
SYMBOL current 368 208 R0
WINDOW 123 0 0 Left 0
WINDOW 39 0 0 Left 0
SYMATTR InstName I1
SYMATTR Value 230m
SYMBOL 5V0_BOOST 192 144 R0
SYMATTR InstName X1
TEXT -48 344 Left 2 !.tran 1.6m startup uic
TEXT -40 -72 Left 2 !.meas pout avg V(out)*I(R1)\n.meas pin avg -V(in)*I(V1)\n.meas eff param pout/pin
