Version 4
SHEET 1 880 680
WIRE 48 144 -16 144
WIRE 128 144 48 144
WIRE 368 144 256 144
WIRE -16 192 -16 144
WIRE 368 208 368 144
WIRE -16 320 -16 272
WIRE 368 320 368 288
FLAG -16 320 0
FLAG 368 320 0
FLAG 368 144 out
FLAG 48 144 in
SYMBOL voltage -16 176 R0
WINDOW 123 0 0 Left 0
WINDOW 39 0 0 Left 0
SYMATTR InstName V1
SYMATTR Value 12
SYMBOL 5V0_BUCK 192 144 R0
SYMATTR InstName X2
SYMBOL current 368 208 R0
WINDOW 123 0 0 Left 0
WINDOW 39 0 0 Left 0
SYMATTR InstName I1
SYMATTR Value 230m
TEXT -48 344 Left 2 !.tran 20m uic
TEXT -40 -72 Left 2 !.meas pout avg V(out)*I(R1)\n.meas pin avg -V(in)*I(V1)\n.meas eff param pout/pin
