Version 4
SHEET 1 880 680
WIRE -128 64 -160 64
WIRE -64 64 -128 64
WIRE 80 64 16 64
WIRE 288 64 80 64
WIRE 304 64 288 64
WIRE 80 96 80 64
WIRE -160 160 -160 64
WIRE 304 176 304 64
WIRE 304 176 256 176
WIRE 80 192 80 176
WIRE 192 192 80 192
WIRE 80 208 80 192
WIRE 304 208 256 208
WIRE 304 272 304 208
WIRE -160 320 -160 240
WIRE 80 320 80 288
FLAG 304 272 0
FLAG 80 320 0
FLAG -160 320 0
FLAG 288 64 out
FLAG -128 64 in
SYMBOL AutoGenerated\\TL431 224 192 M180
SYMATTR InstName U1
SYMBOL res 64 192 R0
SYMATTR InstName R1
SYMATTR Value 100k
SYMBOL res 64 80 R0
SYMATTR InstName R2
SYMATTR Value 18k
SYMBOL res -80 80 R270
WINDOW 0 32 56 VTop 2
WINDOW 3 0 56 VBottom 2
SYMATTR InstName R3
SYMATTR Value 2.2k
SYMBOL voltage -160 144 R0
WINDOW 123 0 0 Left 0
WINDOW 39 0 0 Left 0
SYMATTR InstName V1
SYMATTR Value PULSE(0 4.2 0 5m 5m 1m 11m)
TEXT -194 344 Left 2 !.tran 10m
