Version 4
SHEET 1 1020 680
WIRE 304 112 224 112
WIRE 448 112 304 112
WIRE 512 112 448 112
WIRE 672 112 592 112
WIRE 688 112 672 112
WIRE 768 112 688 112
WIRE 928 112 816 112
WIRE 304 176 304 112
WIRE 448 176 448 112
WIRE 672 176 672 112
WIRE 816 176 816 112
WIRE 768 192 768 112
WIRE 304 304 304 240
WIRE 448 304 448 256
WIRE 448 304 304 304
WIRE 672 304 672 256
WIRE 672 304 448 304
WIRE 768 304 768 240
WIRE 768 304 672 304
WIRE 816 304 816 256
WIRE 816 304 768 304
WIRE 928 304 816 304
FLAG 224 112 Isc
IOPIN 224 112 In
FLAG 928 112 V+
IOPIN 928 112 Out
FLAG 928 304 V-
IOPIN 928 304 In
FLAG 688 112 cell
SYMBOL diode 288 176 R0
SYMATTR InstName Dpv
SYMATTR Value Dcell
SYMBOL res 432 160 R0
SYMATTR InstName Rp
SYMATTR Value {Rp}
SYMBOL res 608 96 R90
WINDOW 0 0 56 VBottom 2
WINDOW 3 32 56 VTop 2
SYMATTR InstName Rs
SYMATTR Value {Rs}
SYMBOL current 672 256 R180
WINDOW 0 24 80 Left 2
WINDOW 3 24 0 Left 2
SYMATTR InstName FCell
SYMATTR Value 1
SYMBOL e 816 160 R0
SYMATTR InstName Epv
SYMATTR Value {n}
TEXT 248 336 Left 2 !.model Dcell D IS={IS}
TEXT 552 328 Left 2 !.param Rs 0.01\n.param Rp 2\n.param n 36\n.param IS 1n
