Version 4
SHEET 1 880 680
WIRE 320 144 240 144
WIRE 448 144 400 144
WIRE 112 176 16 176
WIRE 16 208 16 176
WIRE 272 208 240 208
WIRE 448 208 448 144
WIRE 272 288 272 208
WIRE 16 304 16 288
WIRE 448 304 448 288
FLAG 272 288 0
FLAG 16 304 0
FLAG 448 304 0
SYMBOL SolarCell 176 176 R0
SYMATTR InstName X1
SYMBOL current 16 288 R180
WINDOW 0 24 80 Left 2
WINDOW 3 24 0 Left 2
WINDOW 123 0 0 Left 0
WINDOW 39 0 0 Left 0
SYMATTR InstName Isc
SYMATTR Value 5
SYMBOL res 304 160 R270
WINDOW 0 32 56 VTop 2
WINDOW 3 0 56 VBottom 2
SYMATTR InstName Rload
SYMATTR Value 10m
SYMBOL voltage 448 192 R0
WINDOW 123 0 0 Left 0
WINDOW 39 0 0 Left 0
SYMATTR InstName Vpv
SYMATTR Value 12
TEXT -44 328 Left 2 !.dc Vpv 0 25 0.01 Isc 1 6 1
